data_MH_I_ny
_audit_creation_date              2010-11-24
_audit_creation_method            'Materials Studio'
_symmetry_space_group_name_H-M    'P1'
_symmetry_Int_Tables_number       1
_symmetry_cell_setting            triclinic
loop_
_symmetry_equiv_pos_as_xyz
  x,y,z
_cell_length_a                    11.6200
_cell_length_b                    11.6200
_cell_length_c                    11.6200
_cell_angle_alpha                 90.0000
_cell_angle_beta                  90.0000
_cell_angle_gamma                 90.0000
loop_
_atom_site_label
_atom_site_type_symbol
_atom_site_fract_x
_atom_site_fract_y
_atom_site_fract_z
_atom_site_U_iso_or_equiv
_atom_site_adp_type
_atom_site_occupancy
O1     O     0.18278   0.18468   0.18821   0.00000  Uiso   1.00
O2     O     0.00241   0.31220   0.11786   0.00000  Uiso   1.00
O3     O    -0.00436  -0.49813   0.25214   0.00000  Uiso   1.00
O4     O    -0.18223  -0.17974   0.18173   0.00000  Uiso   1.00
O5     O    -0.00191  -0.30871   0.11789   0.00000  Uiso   1.00
O6     O    -0.18007   0.18891  -0.18528   0.00000  Uiso   1.00
O7     O     0.00516   0.31618  -0.12110   0.00000  Uiso   1.00
O8     O     0.00538  -0.49442  -0.25558   0.00000  Uiso   1.00
O9     O     0.17810  -0.18599  -0.17497   0.00000  Uiso   1.00
O10    O    -0.01067  -0.31155  -0.11495   0.00000  Uiso   1.00
O11    O     0.11363  -0.00115   0.30871   0.00000  Uiso   1.00
O12    O     0.24313   0.00198  -0.49636   0.00000  Uiso   1.00
O13    O     0.11659  -0.00001  -0.29957   0.00000  Uiso   1.00
O14    O    -0.12012   0.00136   0.31194   0.00000  Uiso   1.00
O15    O    -0.25646   0.00323  -0.49914   0.00000  Uiso   1.00
O16    O    -0.11796   0.00393  -0.31001   0.00000  Uiso   1.00
O17    O     0.30465   0.11401   0.00443   0.00000  Uiso   1.00
O18    O     0.49611   0.24574   0.00138   0.00000  Uiso   1.00
O19    O    -0.30642   0.12165  -0.00227   0.00000  Uiso   1.00
O20    O     0.30643  -0.11914   0.00506   0.00000  Uiso   1.00
O21    O    -0.49854  -0.24844   0.00566   0.00000  Uiso   1.00
O22    O    -0.30991  -0.11152   0.00159   0.00000  Uiso   1.00
O23    O    -0.31953  -0.31133   0.31025   0.00000  Uiso   1.00
O24    O    -0.19803  -0.49649   0.38065   0.00000  Uiso   1.00
O25    O     0.31328   0.31758   0.32472   0.00000  Uiso   1.00
O26    O     0.18403  -0.49974   0.38736   0.00000  Uiso   1.00
O27    O    -0.31420   0.32557  -0.31517   0.00000  Uiso   1.00
O28    O    -0.18969  -0.49362  -0.38685   0.00000  Uiso   1.00
O29    O     0.31777  -0.31181  -0.30711   0.00000  Uiso   1.00
O30    O     0.20073  -0.49672  -0.37916   0.00000  Uiso   1.00
O31    O     0.49250  -0.38551   0.19364   0.00000  Uiso   1.00
O32    O    -0.49482  -0.37786  -0.18936   0.00000  Uiso   1.00
O33    O     0.49428   0.37747   0.19206   0.00000  Uiso   1.00
O34    O    -0.49635   0.38728  -0.18359   0.00000  Uiso   1.00
O35    O    -0.39072  -0.18846   0.49592   0.00000  Uiso   1.00
O36    O    -0.38307   0.19860  -0.49659   0.00000  Uiso   1.00
O37    O     0.37586  -0.18829  -0.49324   0.00000  Uiso   1.00
O38    O     0.38228   0.19038  -0.49597   0.00000  Uiso   1.00
O39    O    -0.18618  -0.17607  -0.18381   0.00000  Uiso   1.00
O40    O     0.18843   0.18563  -0.18175   0.00000  Uiso   1.00
O41    O     0.18541  -0.18873   0.19096   0.00000  Uiso   1.00
O42    O    -0.17997   0.18289   0.18064   0.00000  Uiso   1.00
O43    O     0.32332   0.31687  -0.31183   0.00000  Uiso   1.00
O44    O    -0.31510  -0.30991  -0.31985   0.00000  Uiso   1.00
O45    O     0.31536  -0.32038   0.32692   0.00000  Uiso   1.00
O46    O    -0.31613   0.31402   0.31325   0.00000  Uiso   1.00
H47    H    -0.00363   0.43039   0.20552   0.00000  Uiso   1.00
H48    H     0.00589   0.32301   0.03350   0.00000  Uiso   1.00
H49    H     0.06787   0.26160   0.13942   0.00000  Uiso   1.00
H50    H    -0.23411  -0.22823   0.23017   0.00000  Uiso   1.00
H51    H    -0.00300  -0.38279   0.16073   0.00000  Uiso   1.00
H52    H    -0.11745  -0.23057   0.15858   0.00000  Uiso   1.00
H53    H     0.00475   0.43295  -0.21021   0.00000  Uiso   1.00
H54    H    -0.06228   0.26790  -0.14099   0.00000  Uiso   1.00
H55    H     0.22909  -0.23370  -0.22519   0.00000  Uiso   1.00
H56    H    -0.00657  -0.43063  -0.19980   0.00000  Uiso   1.00
H57    H    -0.00933  -0.31764  -0.02982   0.00000  Uiso   1.00
H58    H     0.11317  -0.23638  -0.15229   0.00000  Uiso   1.00
H59    H     0.15450  -0.00008   0.38382   0.00000  Uiso   1.00
H60    H     0.02938  -0.00070   0.32144   0.00000  Uiso   1.00
H61    H     0.15431   0.11628   0.23090   0.00000  Uiso   1.00
H62    H     0.19800   0.00268  -0.42384   0.00000  Uiso   1.00
H63    H     0.03216  -0.00023  -0.31132   0.00000  Uiso   1.00
H64    H     0.13414  -0.06892  -0.25216   0.00000  Uiso   1.00
H65    H    -0.21088   0.00229   0.42854   0.00000  Uiso   1.00
H66    H    -0.13988  -0.06595   0.26290   0.00000  Uiso   1.00
H67    H    -0.16161   0.00413  -0.38345   0.00000  Uiso   1.00
H68    H    -0.15657   0.12119  -0.23184   0.00000  Uiso   1.00
H69    H     0.37971   0.15525   0.00369   0.00000  Uiso   1.00
H70    H     0.31717   0.02979   0.00387   0.00000  Uiso   1.00
H71    H     0.22727   0.15530   0.12141   0.00000  Uiso   1.00
H72    H    -0.43099   0.20118  -0.00004   0.00000  Uiso   1.00
H73    H    -0.31526   0.03674   0.00045   0.00000  Uiso   1.00
H74    H    -0.22647   0.16005  -0.11961   0.00000  Uiso   1.00
H75    H     0.38035  -0.16222   0.00499   0.00000  Uiso   1.00
H76    H     0.26171  -0.14629  -0.06276   0.00000  Uiso   1.00
H77    H    -0.38202  -0.15697   0.00625   0.00000  Uiso   1.00
H78    H    -0.26220  -0.13760   0.06765   0.00000  Uiso   1.00
H79    H    -0.12306  -0.49665   0.33923   0.00000  Uiso   1.00
H80    H    -0.18447  -0.49476   0.46473   0.00000  Uiso   1.00
H81    H    -0.27637  -0.37929   0.33904   0.00000  Uiso   1.00
H82    H     0.26411   0.26902   0.27365   0.00000  Uiso   1.00
H83    H     0.06734  -0.49725   0.29900   0.00000  Uiso   1.00
H84    H     0.23283   0.43298   0.36768   0.00000  Uiso   1.00
H85    H    -0.26372   0.27444  -0.26805   0.00000  Uiso   1.00
H86    H    -0.11564  -0.49338  -0.34423   0.00000  Uiso   1.00
H87    H    -0.23349   0.43847  -0.35829   0.00000  Uiso   1.00
H88    H     0.12606  -0.49433  -0.33762   0.00000  Uiso   1.00
H89    H     0.18621  -0.49873  -0.46318   0.00000  Uiso   1.00
H90    H     0.27735  -0.38086  -0.33808   0.00000  Uiso   1.00
H91    H     0.49153  -0.30282   0.07088   0.00000  Uiso   1.00
H92    H     0.49053  -0.47019   0.18474   0.00000  Uiso   1.00
H93    H    -0.38752  -0.34184   0.26828   0.00000  Uiso   1.00
H94    H    -0.49646  -0.29481  -0.06603   0.00000  Uiso   1.00
H95    H    -0.49299  -0.46248  -0.17947   0.00000  Uiso   1.00
H96    H    -0.42940  -0.35713  -0.24016   0.00000  Uiso   1.00
H97    H     0.49441   0.29087   0.07411   0.00000  Uiso   1.00
H98    H     0.42880   0.35690   0.24297   0.00000  Uiso   1.00
H99    H    -0.49817   0.34208  -0.11096   0.00000  Uiso   1.00
H100   H    -0.37818   0.34855  -0.26346   0.00000  Uiso   1.00
H101   H    -0.34727  -0.11486   0.49819   0.00000  Uiso   1.00
H102   H    -0.36381  -0.23010   0.42627   0.00000  Uiso   1.00
H103   H    -0.30147   0.07587  -0.49731   0.00000  Uiso   1.00
H104   H    -0.46751   0.18726  -0.49307   0.00000  Uiso   1.00
H105   H    -0.36197   0.24871  -0.43071   0.00000  Uiso   1.00
H106   H     0.28945  -0.06972  -0.49688   0.00000  Uiso   1.00
H107   H     0.46054  -0.17865  -0.49847   0.00000  Uiso   1.00
H108   H     0.38557  -0.34051  -0.26351   0.00000  Uiso   1.00
H109   H     0.33824   0.11724  -0.49575   0.00000  Uiso   1.00
H110   H     0.33748   0.26718   0.38955   0.00000  Uiso   1.00
H111   H    -0.23383  -0.22629  -0.23481   0.00000  Uiso   1.00
H112   H    -0.07465  -0.25899  -0.13602   0.00000  Uiso   1.00
H113   H     0.07218   0.26685  -0.14041   0.00000  Uiso   1.00
H114   H     0.06769  -0.26721   0.14489   0.00000  Uiso   1.00
H115   H    -0.23111   0.23068   0.23058   0.00000  Uiso   1.00
H116   H    -0.11549   0.23369   0.15739   0.00000  Uiso   1.00
H117   H    -0.14592  -0.06382  -0.26560   0.00000  Uiso   1.00
H118   H    -0.13884   0.06831   0.26215   0.00000  Uiso   1.00
H119   H     0.15878   0.11681  -0.22333   0.00000  Uiso   1.00
H120   H     0.15519  -0.12007   0.23208   0.00000  Uiso   1.00
H121   H    -0.23685  -0.15272  -0.11900   0.00000  Uiso   1.00
H122   H     0.22766  -0.15981   0.12249   0.00000  Uiso   1.00
H123   H    -0.25633   0.14256   0.06390   0.00000  Uiso   1.00
H124   H     0.22950   0.15639  -0.11256   0.00000  Uiso   1.00
H125   H     0.27399   0.26665  -0.26221   0.00000  Uiso   1.00
H126   H     0.27443   0.38267  -0.33565   0.00000  Uiso   1.00
H127   H     0.26669  -0.27179   0.27528   0.00000  Uiso   1.00
H128   H     0.23398  -0.43290   0.36830   0.00000  Uiso   1.00
H129   H    -0.27471   0.38295   0.34212   0.00000  Uiso   1.00
H130   H     0.43553   0.36130  -0.22840   0.00000  Uiso   1.00
H131   H    -0.43643   0.35738   0.23772   0.00000  Uiso   1.00
H132   H    -0.26921  -0.37636  -0.34766   0.00000  Uiso   1.00
H133   H     0.42873  -0.36435   0.24655   0.00000  Uiso   1.00
H134   H     0.36132  -0.23333  -0.42207   0.00000  Uiso   1.00
H135   H     0.35638   0.23449  -0.42727   0.00000  Uiso   1.00
H136   H     0.33807  -0.26967   0.39174   0.00000  Uiso   1.00
H137   H    -0.34484   0.27236   0.38236   0.00000  Uiso   1.00
H138   H    -0.34466  -0.26840  -0.38852   0.00000  Uiso   1.00
C139   C     0.49415   0.01663   0.24734   0.00000  Uiso   1.00
H140   H    -0.44724   0.03189   0.17551   0.00000  Uiso   1.00
H141   H     0.45562   0.09795   0.27445   0.00000  Uiso   1.00
H142   H     0.42649  -0.04321   0.22132   0.00000  Uiso   1.00
H143   H    -0.45820  -0.02035   0.31947   0.00000  Uiso   1.00
C144   C    -0.49364   0.02924  -0.24956   0.00000  Uiso   1.00
H145   H    -0.40390   0.01405  -0.27309   0.00000  Uiso   1.00
H146   H     0.49469   0.11973  -0.22707   0.00000  Uiso   1.00
H147   H     0.45036   0.00783  -0.32193   0.00000  Uiso   1.00
H148   H     0.48379  -0.02474  -0.17595   0.00000  Uiso   1.00
C149   C    -0.25541  -0.47783   0.01623   0.00000  Uiso   1.00
H150   H    -0.17994  -0.46521  -0.03831   0.00000  Uiso   1.00
H151   H    -0.28275  -0.39534   0.05190   0.00000  Uiso   1.00
H152   H    -0.32556   0.48605  -0.03487   0.00000  Uiso   1.00
H153   H    -0.23434   0.46281   0.08599   0.00000  Uiso   1.00
C154   C     0.24279  -0.47618  -0.01292   0.00000  Uiso   1.00
H155   H     0.32259   0.47860  -0.03366   0.00000  Uiso   1.00
H156   H     0.26054  -0.38475  -0.00038   0.00000  Uiso   1.00
H157   H     0.18151  -0.48734  -0.08326   0.00000  Uiso   1.00
H158   H     0.20558   0.48812   0.06565   0.00000  Uiso   1.00
C159   C     0.00652  -0.24316   0.48767   0.00000  Uiso   1.00
H160   H     0.09691  -0.22760   0.46737   0.00000  Uiso   1.00
H161   H    -0.02968  -0.16700  -0.47091   0.00000  Uiso   1.00
H162   H    -0.04089  -0.26127   0.40849   0.00000  Uiso   1.00
H163   H    -0.00020  -0.31674  -0.45423   0.00000  Uiso   1.00
C164   C     0.00785   0.25482  -0.48375   0.00000  Uiso   1.00
H165   H     0.08857   0.26094   0.46846   0.00000  Uiso   1.00
H166   H    -0.03919   0.33591  -0.49006   0.00000  Uiso   1.00
H167   H    -0.04438   0.18494   0.48114   0.00000  Uiso   1.00
H168   H     0.02660   0.23723  -0.39332   0.00000  Uiso   1.00
C169   C    -0.49819  -0.49556   0.49997   0.00000  Uiso   1.00
H170   H    -0.40571  -0.48015   0.49677   0.00000  Uiso   1.00
H171   H     0.45741  -0.41624  -0.47669   0.00000  Uiso   1.00
H172   H     0.47220   0.47541   0.41586   0.00000  Uiso   1.00
H173   H     0.48310   0.43838  -0.43608   0.00000  Uiso   1.00
C174   C     0.00175   0.00179   0.00302   0.00000  Uiso   1.00
H175   H     0.09441   0.00454  -0.01132   0.00000  Uiso   1.00
H176   H    -0.01584   0.00044   0.09517   0.00000  Uiso   1.00
H177   H    -0.03798   0.07767  -0.03534   0.00000  Uiso   1.00
H178   H    -0.03358  -0.07562  -0.03649   0.00000  Uiso   1.00
loop_
_geom_bond_atom_site_label_1
_geom_bond_atom_site_label_2
_geom_bond_distance
_geom_bond_site_symmetry_2
O1     H61     0.994   .    
O1     H71     0.993   .    
O2     H48     0.989   .    
O2     H49     0.994   .    
O3     H83     0.995   .    
O3     H47     0.992   1_545
O4     H50     0.999   .    
O4     H52     0.994   .    
O5     H51     0.995   .    
O5     H114    0.992   .    
O6     H68     0.993   .    
O6     H74     0.993   .    
O7     H54     0.991   .    
O7     H113    0.993   .    
O8     H56     0.994   .    
O8     H53     0.995   1_545
O9     H55     1.000   .    
O9     H58     0.991   .    
O10    H57     0.992   .    
O10    H112    0.993   .    
O11    H59     0.994   .    
O11    H60     0.990   .    
O12    H62     0.993   .    
O12    H106    0.992   .    
O13    H63     0.991   .    
O13    H64     0.993   .    
O14    H66     0.994   .    
O14    H118    0.994   .    
O15    H103    0.993   .    
O15    H65     0.993   1_554
O16    H67     0.993   .    
O16    H117    0.996   .    
O17    H69     0.995   .    
O17    H70     0.989   .    
O18    H97     0.995   .    
O18    H72     0.993   1_655
O19    H73     0.992   .    
O19    H123    0.994   .    
O20    H75     0.994   .    
O20    H76     0.995   .    
O21    H94     0.992   .    
O21    H91     0.993   1_455
O22    H77     0.992   .    
O22    H78     0.994   .    
O23    H81     0.993   .    
O23    H93     0.994   .    
O24    H79     0.995   .    
O24    H80     0.990   .    
O25    H82     0.999   .    
O25    H110    0.995   .    
O26    H128    0.995   .    
O26    H84     0.992   1_545
O27    H85     0.999   .    
O27    H100    0.992   .    
O28    H86     0.993   .    
O28    H87     0.996   1_545
O29    H90     0.997   .    
O29    H108    0.994   .    
O30    H88     0.993   .    
O30    H89     0.991   .    
O31    H92     0.990   .    
O31    H133    0.994   .    
O32    H95     0.990   .    
O32    H96     0.992   .    
O33    H98     0.993   .    
O33    H131    0.992   1_655
O34    H99     0.994   .    
O34    H130    0.994   1_455
O35    H101    0.994   .    
O35    H102    0.993   .    
O36    H104    0.991   .    
O36    H105    0.993   .    
O37    H107    0.992   .    
O37    H134    0.993   .    
O38    H109    0.992   .    
O38    H135    0.995   .    
O39    H111    0.999   .    
O39    H121    0.994   .    
O40    H119    0.996   .    
O40    H124    0.995   .    
O41    H120    0.994   .    
O41    H122    0.993   .    
O42    H115    0.999   .    
O42    H116    0.991   .    
O43    H125    1.001   .    
O43    H126    0.992   .    
O44    H132    0.992   .    
O44    H138    0.994   .    
O45    H127    0.999   .    
O45    H136    0.992   .    
O46    H129    0.993   .    
O46    H137    0.995   .    
H47    O3      0.992   1_565
H53    O8      0.995   1_565
H65    O15     0.993   1_556
H72    O18     0.993   1_455
H84    O26     0.992   1_565
H87    O28     0.996   1_565
H91    O21     0.993   1_655
H130   O34     0.994   1_655
H131   O33     0.992   1_455
C139   H140    1.092   1_655
C139   H141    1.092   .    
C139   H142    1.092   .    
C139   H143    1.093   1_655
H140   C139    1.092   1_455
H143   C139    1.093   1_455
C144   H145    1.092   .    
C144   H146    1.092   1_455
C144   H147    1.092   1_455
C144   H148    1.093   1_455
H146   C144    1.092   1_655
H147   C144    1.092   1_655
H148   C144    1.093   1_655
C149   H150    1.092   .    
C149   H151    1.092   .    
C149   H152    1.092   1_545
C149   H153    1.092   1_545
H152   C149    1.092   1_565
H153   C149    1.092   1_565
C154   H156    1.092   .    
C154   H157    1.092   .    
C154   H155    1.093   1_545
C154   H158    1.092   1_545
H155   C154    1.093   1_565
H158   C154    1.092   1_565
C159   H160    1.092   .    
C159   H162    1.093   .    
C159   H161    1.092   1_556
C159   H163    1.092   1_556
H161   C159    1.092   1_554
H163   C159    1.092   1_554
C164   H166    1.092   .    
C164   H168    1.092   .    
C164   H165    1.092   1_554
C164   H167    1.093   1_554
H165   C164    1.092   1_556
H167   C164    1.093   1_556
C169   H170    1.090   .    
C169   H171    1.091   1_456
C169   H172    1.090   1_445
C169   H173    1.090   1_446
H171   C169    1.091   1_654
H172   C169    1.090   1_665
H173   C169    1.090   1_664
C174   H175    1.090   .    
C174   H176    1.090   .    
C174   H177    1.091   .    
C174   H178    1.090   .    
